Version 4
SHEET 1 2048 680
WIRE 16 -160 -288 -160
WIRE 576 -160 96 -160
WIRE 960 -160 576 -160
WIRE 1296 -160 960 -160
WIRE 1632 -160 1296 -160
WIRE 1968 -160 1632 -160
WIRE 576 -96 576 -160
WIRE 960 -96 960 -160
WIRE 960 -96 880 -96
WIRE 1296 -96 1296 -160
WIRE 1296 -96 1216 -96
WIRE 1632 -96 1632 -160
WIRE 1632 -96 1552 -96
WIRE 1968 -96 1968 -160
WIRE 1968 -96 1888 -96
WIRE 960 -48 960 -96
WIRE 1296 -48 1296 -96
WIRE 1632 -48 1632 -96
WIRE 1968 -48 1968 -96
WIRE 880 -32 880 -96
WIRE 1216 -32 1216 -96
WIRE 1552 -32 1552 -96
WIRE 1888 -32 1888 -96
WIRE 48 48 -128 48
WIRE 320 48 128 48
WIRE 576 48 576 -16
WIRE 576 48 512 48
WIRE 880 80 880 32
WIRE 960 80 960 32
WIRE 960 80 880 80
WIRE 1216 80 1216 32
WIRE 1296 80 1296 32
WIRE 1296 80 1216 80
WIRE 1552 80 1552 32
WIRE 1632 80 1632 32
WIRE 1632 80 1552 80
WIRE 1888 80 1888 32
WIRE 1968 80 1968 32
WIRE 1968 80 1888 80
WIRE -288 144 -288 -160
WIRE 320 144 272 144
WIRE 576 144 512 144
WIRE 1008 144 576 144
WIRE 1344 144 1008 144
WIRE 1680 144 1344 144
WIRE 960 224 960 80
WIRE 960 224 912 224
WIRE 1296 224 1296 80
WIRE 1296 224 1248 224
WIRE 1632 224 1632 80
WIRE 1632 224 1584 224
WIRE 1968 224 1968 80
WIRE 1968 224 1920 224
WIRE 576 240 576 144
WIRE 672 240 576 240
WIRE 704 240 672 240
WIRE 1008 240 1008 144
WIRE 1040 240 1008 240
WIRE 1344 240 1344 144
WIRE 1376 240 1344 240
WIRE 1680 240 1680 144
WIRE 1712 240 1680 240
WIRE 960 256 912 256
WIRE 1296 256 1248 256
WIRE 1632 256 1584 256
WIRE 1968 256 1920 256
WIRE -128 272 -128 48
WIRE 576 272 576 240
WIRE 672 288 672 240
WIRE -128 400 -128 352
WIRE 224 400 -128 400
WIRE 272 400 272 144
WIRE 272 400 224 400
WIRE 384 400 272 400
WIRE 576 400 576 352
WIRE 576 400 464 400
WIRE 672 400 672 352
WIRE 672 400 576 400
WIRE 960 400 960 256
WIRE 960 400 672 400
WIRE 224 464 224 400
WIRE -288 576 -288 224
WIRE 960 576 960 400
WIRE 960 576 -288 576
WIRE 1296 576 1296 256
WIRE 1296 576 960 576
WIRE 1632 576 1632 256
WIRE 1632 576 1296 576
WIRE 1968 576 1968 256
WIRE 1968 576 1632 576
FLAG 224 464 0
SYMBOL ind 944 -64 R0
SYMATTR InstName L1
SYMATTR Value 4mH
SYMATTR SpiceLine Rser=6
SYMBOL voltage -128 256 R0
WINDOW 3 -114 176 Left 2
WINDOW 123 0 0 Left 2
SYMATTR Value PULSE(0 8 10m 1u 1u 10m 50m 3)
SYMATTR InstName V1
SYMATTR SpiceLine Rser=10
SYMBOL voltage -288 128 R0
WINDOW 123 0 0 Left 2
SYMATTR InstName V2
SYMATTR Value 9
SYMATTR SpiceLine Rser=1
SYMBOL res 560 256 R0
SYMATTR InstName R1
SYMATTR Value 4.7k
SYMBOL Optos\\PC817A 416 96 R0
SYMATTR InstName U1
SYMBOL res 32 32 M90
WINDOW 0 0 56 VBottom 2
WINDOW 3 32 56 VTop 2
SYMATTR InstName R2
SYMATTR Value 330
SYMBOL res 368 384 M90
WINDOW 0 0 56 VBottom 2
WINDOW 3 32 56 VTop 2
SYMATTR InstName R3
SYMATTR Value 1meg
SYMBOL res 560 -112 R0
SYMATTR InstName R5
SYMATTR Value 1k
SYMBOL cap 656 288 R0
SYMATTR InstName C2
SYMATTR Value 3.3µ
SYMBOL AutoGenerated\\BUK9637-100E 800 240 R0
SYMATTR InstName U2
SYMBOL diode 896 32 R180
WINDOW 0 24 64 Left 2
WINDOW 3 24 0 Left 2
SYMATTR InstName D1
SYMATTR Value D1n4001rl
SYMBOL res 0 -176 M90
WINDOW 0 0 56 VBottom 2
WINDOW 3 32 56 VTop 2
SYMATTR InstName R4
SYMATTR Value 0.33
SYMBOL ind 1280 -64 R0
SYMATTR InstName L2
SYMATTR Value 4mH
SYMATTR SpiceLine Rser=6
SYMBOL AutoGenerated\\BUK9637-100E 1136 240 R0
SYMATTR InstName U3
SYMBOL diode 1232 32 R180
WINDOW 0 24 64 Left 2
WINDOW 3 24 0 Left 2
SYMATTR InstName D2
SYMATTR Value D1n4001rl
SYMBOL ind 1616 -64 R0
SYMATTR InstName L3
SYMATTR Value 4mH
SYMATTR SpiceLine Rser=6
SYMBOL AutoGenerated\\BUK9637-100E 1472 240 R0
SYMATTR InstName U4
SYMBOL diode 1568 32 R180
WINDOW 0 24 64 Left 2
WINDOW 3 24 0 Left 2
SYMATTR InstName D3
SYMATTR Value D1n4001rl
SYMBOL ind 1952 -64 R0
SYMATTR InstName L4
SYMATTR Value 4mH
SYMATTR SpiceLine Rser=6
SYMBOL AutoGenerated\\BUK9637-100E 1808 240 R0
SYMATTR InstName U5
SYMBOL diode 1904 32 R180
WINDOW 0 24 64 Left 2
WINDOW 3 24 0 Left 2
SYMATTR InstName D4
SYMATTR Value D1n4001rl
TEXT -496 296 Left 2 !.tran 0 0.15 0 1u
TEXT 680 -328 Left 2 !.inc BUK9637-100E.lib
TEXT 680 -280 Left 2 !.inc 1N4001RL.LIB
